37
C	4.08641091	-0.87626118	0.44628019
C	3.39272838	-0.68560800	-0.76688108
C	2.01546398	-0.40414488	-0.76194784
C	1.35742386	-0.31901572	0.46809679
C	2.04363426	-0.50668870	1.64579512
C	3.40812078	-0.78687545	1.67341228
C	1.08907061	-0.35437543	2.71330517
O	1.33205772	-0.45351471	3.94413273
O	-0.16516701	-0.07653801	2.18196922
C	-0.10143758	-0.03189543	0.74661867
C	-0.97118811	-1.13202723	0.15937871
C	-0.85468699	-2.44984691	0.63150864
C	-1.60597849	-3.47943023	0.06307907
C	-2.48567118	-3.21244800	-0.99399615
C	-2.61144266	-1.89427560	-1.47887658
C	-1.85787663	-0.86038921	-0.89895530
O	-2.00589285	0.44288917	-1.37714825
C	-1.36579624	1.54128576	-0.80114345
C	-1.64244426	2.82816044	-1.28464059
C	-1.02521801	3.94931854	-0.71028646
C	-0.12168916	3.77539532	0.35544619
C	0.15533242	2.49018354	0.82928788
C	-0.46076136	1.36259379	0.25993347
I	0.87030470	5.39933268	1.28821986
O	-1.32465843	5.21648740	-1.21344148
I	-3.00836895	3.07655608	-2.88813908
I	-3.92880424	-1.41289809	-3.07701813
O	-3.21765586	-4.26797249	-1.54083519
I	-1.38043566	-5.44266757	0.81665035
H	5.14667143	-1.09254863	0.43212709
H	3.92351412	-0.75634800	-1.70728333
H	1.47698394	-0.25675813	-1.68913450
H	3.93043894	-0.93138626	2.61014636
H	-0.16927778	-2.68141595	1.43677426
H	0.86388963	2.36961769	1.63883823
H	-0.91744053	6.06634072	-0.84690255
H	-3.87015369	-4.15283131	-2.30437030

39
C	-0.63538471	-3.10903149	-2.12530289
C	-0.71783706	-4.04540085	-1.09726850
C	-0.58589047	-3.64101978	0.23247776
C	-0.37150099	-2.28676645	0.55935994
C	-0.28081606	-1.33937922	-0.49684157
C	-0.41606912	-1.76466583	-1.82841314
C	-0.00964868	0.10052737	-0.25731903
C	-1.06952700	1.02882637	-0.23328617
C	-2.41698805	0.67476456	-0.40406357
C	-3.43546687	1.64603471	-0.36269890
C	-3.09576604	3.00636560	-0.14694336
O	-3.99443662	3.88991987	-0.12073742
C	-1.75997585	3.39765956	0.03581844
C	-0.73862851	2.44792993	0.00155829
O	0.52199234	2.81082828	0.17934121
C	1.53442510	1.95087989	0.15734948
C	2.83510612	2.43147892	0.35518954
C	3.92786090	1.55517664	0.33520975
C	3.73116057	0.17503085	0.11935465
C	2.42289810	-0.30185441	-0.08306444
C	1.31412230	0.56865812	-0.06348307
N	4.84191848	-0.74808211	0.10043382
O	4.67397344	-1.93268295	-0.25731013
O	6.09799616	-0.36094909	0.50697022
O	5.20659331	2.07028806	0.52120323
Br	3.12310368	4.30634614	0.65044183
Br	-1.32601708	5.24465734	0.33370038
N	-4.80850052	1.23147403	-0.54400892
O	-5.75476043	2.02539962	-0.36312374
O	-5.10306358	-0.06569199	-0.89798668
C	-0.25046929	-1.90775625	1.99398795
O	-0.08248704	-2.79642029	2.87127727
O	-0.33967101	-0.58299934	2.40321197
H	-0.73757450	-3.42598843	-3.15514599
H	-0.88627692	-5.08889737	-1.33045096
H	-0.66194160	-4.39276940	1.00826051
H	-0.34509215	-1.04994568	-2.63962562
H	-2.68428877	-0.36131720	-0.56195668
H	2.27692840	-1.36062772	-0.24929127

37
C	1.87523332	1.13415333	-3.51025893
C	1.83365341	-0.16639314	-2.96606255
C	1.16315814	-0.40932329	-1.75463686
C	0.54372596	0.66446281	-1.10920700
C	0.59032348	1.92929628	-1.64876947
C	1.24668772	2.20148079	-2.84719205
C	-0.13357068	2.79224252	-0.75140842
O	-0.31530893	4.02885363	-0.89830652
O	-0.61362670	2.05171275	0.32273089
C	-0.23305003	0.67206703	0.18883485
C	-1.47644171	-0.19320223	0.05817205
C	-2.47941519	0.14587753	-0.86652094
C	-3.60211184	-0.66878866	-1.03742057
C	-3.73413415	-1.84850703	-0.28117810
C	-2.73644345	-2.19398740	0.64204989
C	-1.61479585	-1.37056379	0.81515685
O	-0.64455710	-1.72682027	1.75332502
C	0.45469481	-0.91964317	2.05090373
C	1.33362545	-1.30717956	3.07236404
C	2.43517136	-0.50430216	3.40263482
C	2.65620647	0.69483107	2.69957718
C	1.78142333	1.07428866	1.67776516
C	0.67441049	0.27546120	1.34252620
Br	4.14209273	1.84089088	3.08883173
O	3.29023748	-0.91657701	4.42656340
Br	1.02023498	-2.94126298	4.02641231
Br	-2.90776660	-3.79707800	1.68098777
O	-4.84008201	-2.68803764	-0.42817292
Br	-4.91963834	-0.13354556	-2.32212925
H	2.39392888	1.31113213	-4.44341023
H	2.32067871	-0.98235356	-3.48385649
H	1.12736870	-1.40479292	-1.33142661
H	1.27233915	3.20330348	-3.25568694
H	-2.38364516	1.04236454	-1.46606421
H	1.97247751	1.99154721	1.13513428
H	4.10112065	-0.38458041	4.71436587
H	-5.59420498	-2.49702707	-1.07485265

43
C	-5.76770198	-1.60641550	0.94037284
C	-5.25128656	-0.18295748	1.14193035
N	-4.33839188	0.20464246	0.05259975
C	-4.94197615	0.76366515	-1.16947475
C	-5.15643903	2.26989718	-1.03213268
C	-2.89578254	0.04123471	0.17886606
C	-2.00509637	0.78718409	-0.62614063
C	-0.62056077	0.63034943	-0.50443947
C	-0.09599359	-0.27952261	0.42756212
C	-0.96172134	-1.02636650	1.23232186
C	-2.34479884	-0.86811467	1.11014231
C	1.29092537	-0.41310888	0.52461187
C	2.13321544	0.35297803	-0.29821398
C	1.52093336	1.24657017	-1.20952968
O	2.21088170	1.96574134	-1.97825713
O	0.19559231	1.34431970	-1.27157066
C	3.60935240	0.19343416	-0.17672280
N	4.18358226	-0.66764908	0.70439624
C	5.53874934	-0.63557503	0.62935854
C	6.39136250	-1.41327191	1.41492029
C	7.77990257	-1.28307828	1.23641651
C	8.29587925	-0.38352330	0.28165839
C	7.42791990	0.39325208	-0.50248332
C	6.05775017	0.24407558	-0.30472593
S	4.79132474	1.02162688	-1.07749781
H	-6.38888664	-1.90286453	1.81150962
H	-6.39399154	-1.66163738	0.02559728
H	-4.92859814	-2.32439565	0.83959083
H	-6.12299465	0.50594586	1.17293524
H	-4.75174188	-0.08736216	2.12934233
H	-4.31454458	0.54017294	-2.05832623
H	-5.92628253	0.28487618	-1.36266344
H	-5.53722392	2.67968314	-1.99114672
H	-5.90249872	2.48050444	-0.23768513
H	-4.20913817	2.78576354	-0.77473025
H	-2.36795065	1.50319609	-1.34841139
H	-0.57073868	-1.73345086	1.95440436
H	-2.97299767	-1.47269975	1.74655441
H	1.70969658	-1.11191326	1.23955457
H	5.99355138	-2.10364804	2.14770673
H	8.45687087	-1.87751396	1.83608653
H	9.36632824	-0.29090655	0.15213108
H	7.81351846	1.08686224	-1.23830277

39
C	-5.50035854	-1.35257226	-0.63935708
N	-5.15160908	0.05440343	-0.40611656
C	-6.21550471	1.06521300	-0.45000123
C	-3.77809664	0.43974891	-0.13616012
C	-2.70507167	-0.39152409	-0.51811225
C	-1.38441240	-0.01418999	-0.25468238
C	-1.09697607	1.20360602	0.39772282
C	-2.16076639	2.02800646	0.77660096
C	-3.48257459	1.65547036	0.51521596
N	0.17887872	1.61409742	0.67627211
C	1.34967714	0.96922715	0.39579506
C	2.56092278	1.54711018	0.75903014
C	3.77256083	0.90451037	0.48131835
C	3.83267177	-0.35786118	-0.17873395
N	4.99596515	-0.94979378	-0.43225511
C	5.06639641	-2.25708024	-1.11538803
C	6.27959369	-0.33161974	-0.04427900
C	2.60042879	-0.96003452	-0.55576526
C	1.38593306	-0.33301535	-0.28631747
S	-0.09548529	-1.00682493	-0.71295593
Cl	0.00000000	0.00000000	0.00000000
H	-5.04903695	-1.98974511	0.15062435
H	-6.59899306	-1.51198002	-0.60876682
H	-5.13089694	-1.67275641	-1.63591817
H	-5.90163445	1.91656426	-1.09063899
H	-7.15339035	0.65335060	-0.87906115
H	-6.43349002	1.42846122	0.57599783
H	-2.88463430	-1.32726888	-1.02991354
H	-1.96544004	2.96677664	1.28084924
H	-4.27051150	2.32176300	0.83738759
H	2.57176203	2.50605948	1.26311386
H	4.66510234	1.42428012	0.79830976
H	6.10961309	-2.61118379	-1.24993869
H	4.53740351	-3.02923338	-0.51665873
H	4.61687948	-2.18253948	-2.12875324
H	6.32109627	-0.19862630	1.05803706
H	7.15411869	-0.95344233	-0.32773177
H	6.40060876	0.64811355	-0.55416968
H	2.55927049	-1.91547036	-1.05955325

45
C	0.45160884	-2.25321281	1.97163042
C	1.29513589	-2.01509206	0.73397762
C	2.25757338	-2.99905046	0.38609965
C	3.05818196	-2.83570267	-0.75989395
C	2.92094351	-1.69141348	-1.54197466
C	2.01261983	-0.69910662	-1.19007789
C	1.19029899	-0.81618416	-0.04597197
C	0.20336564	0.32190048	0.33531191
C	0.43187853	1.60118199	-0.47339361
C	-0.02570598	1.87629254	-1.77393778
C	0.30084064	3.10571158	-2.36900610
C	1.07040607	4.04987191	-1.66617431
C	1.51413702	3.76659831	-0.36701007
C	1.18636444	2.53022034	0.18562585
S	1.47811775	1.96395307	1.76260765
O	2.91143459	1.56242257	1.96641404
O	1.02160403	2.94343426	2.80626725
O	0.46089249	0.61081593	1.71369785
C	-1.26894538	-0.11239137	0.14475194
C	-1.57256529	-1.08834955	-0.83019043
C	-2.86612755	-1.57129318	-1.00606554
C	-3.91003704	-1.08143509	-0.21124502
C	-3.65815801	-0.06691373	0.72200663
C	-2.35504334	0.47387165	0.86713315
C	-2.14359290	1.64260345	1.80295686
Br	-5.14003399	0.53442637	1.80033686
O	-5.20876044	-1.58122732	-0.33462403
Br	-3.14988698	-2.92129997	-2.33782628
Br	3.99672376	-1.45029053	-3.10843983
O	3.99992574	-3.79397459	-1.14441591
Br	2.50982718	-4.56271293	1.49292405
H	-0.46723614	-1.64548932	2.01616742
H	1.05797312	-2.04432534	2.87764735
H	0.09531577	-3.30324519	2.00345861
H	1.97328962	0.16627926	-1.83162058
H	-0.61191709	1.15105013	-2.32191929
H	-0.04201546	3.32756336	-3.37118759
H	1.31274896	4.99954453	-2.12499596
H	2.08719449	4.49262917	0.19467238
H	-0.79834582	-1.49377469	-1.46714288
H	-1.40474265	2.35343816	1.38928449
H	-3.06183643	2.24725595	1.93360483
H	-1.81188859	1.27705147	2.79697550
H	-5.45954857	-2.31471863	-0.98452392
H	4.15798543	-4.65691280	-0.64191470

48
C	-7.31357014	-1.37183815	-0.40682892
C	-7.05653255	-0.12530298	-0.98423943
C	-6.18648987	0.77184347	-0.35682381
C	-5.57444368	0.42941779	0.86037789
C	-5.82746969	-0.83043876	1.42798766
C	-6.69814966	-1.72470455	0.79735583
C	-4.60539755	1.37616490	1.51539925
N	-3.24586610	1.12864271	1.02053246
C	-2.45120251	0.21110068	1.64890439
C	-1.16744748	-0.06303378	1.17283942
C	-0.68707383	0.60240414	0.03490143
C	-1.52236241	1.53323299	-0.60084289
C	-2.80069897	1.77955327	-0.09586831
C	0.67523138	0.32466588	-0.48845810
C	1.48120576	1.36485717	-0.97500517
C	2.76004314	1.08501687	-1.46088661
N	3.23395940	-0.19691983	-1.47672527
C	2.46820353	-1.22308260	-0.99836070
C	1.18494336	-0.98240897	-0.50325041
C	4.59380873	-0.46563265	-1.95951798
C	5.57540681	-0.36361553	-0.82352001
C	6.16395710	0.87138347	-0.50442521
C	7.04582515	0.97274247	0.57609821
C	7.33818452	-0.15383130	1.34984175
C	6.74632914	-1.38304038	1.04641123
C	5.86392786	-1.48864794	-0.03326750
H	-7.98613378	-2.06565205	-0.89439745
H	-7.52882493	0.14453606	-1.91996997
H	-5.98943733	1.73100905	-0.81930555
H	-5.35065476	-1.11977829	2.35623747
H	-6.89306292	-2.69273884	1.24050757
H	-4.90535463	2.42922142	1.31526432
H	-4.64325299	1.25719253	2.62145417
H	-2.80696855	-0.31540880	2.52665228
H	-0.55098106	-0.77929772	1.70120210
H	-1.19923192	2.05211392	-1.49452127
H	-3.43667446	2.49236541	-0.60739287
H	1.13509947	2.39068544	-0.96088196
H	3.37325539	1.90271771	-1.82082975
H	2.84690236	-2.23837130	-0.99820979
H	0.59152666	-1.81591013	-0.14918181
H	4.64846135	-1.47647853	-2.42227890
H	4.86747346	0.25034854	-2.76663263
H	5.93949296	1.75389366	-1.09052257
H	7.49990614	1.92556019	0.81570958
H	8.01986420	-0.07342916	2.18667566
H	6.96860716	-2.25350379	1.65002631
H	5.40566674	-2.44508328	-0.25223412

37
C	-0.25105369	2.24510154	-0.18787318
C	-0.82827258	0.96775684	-0.05499738
C	-0.07683517	-0.21517124	-0.25951272
C	-0.71949746	-1.45954609	-0.11872714
C	-0.07052815	-2.69253216	-0.28892491
C	-0.77447275	-3.89036269	-0.13120293
C	-2.13908129	-3.88671521	0.20289054
O	-2.75029550	-4.98019451	0.33831995
C	-2.82795925	-2.67800231	0.38848359
C	-2.15476486	-1.46162082	0.23915998
O	-2.79061503	-0.31440727	0.41754326
C	-2.20198345	0.87023507	0.28948034
C	-2.96325362	2.03273077	0.50018021
C	-2.36401181	3.30161875	0.36747728
C	-1.01034072	3.39626742	0.02315205
I	-0.07668445	5.28288224	-0.18693704
O	-3.08695598	4.47870154	0.57033529
I	-5.01688409	1.82162935	1.01731075
I	-4.88806821	-2.68767376	0.89806763
I	0.26427758	-5.71392182	-0.40665399
C	1.36753275	-0.15145348	-0.61715350
C	2.35245824	0.04844239	0.38165768
C	3.71082789	0.14312819	0.00581786
C	4.07806537	0.04628724	-1.34805080
C	3.09734455	-0.14488512	-2.33401098
C	1.74530625	-0.24327790	-1.97134382
Cl	0.51538047	-0.46396987	-3.22269616
Cl	3.56512434	-0.26152447	-4.03279158
Cl	5.77837653	0.15986246	-1.81295946
Cl	4.97595824	0.32052446	1.22924992
C	1.96465201	0.17113144	1.80799921
O	1.14428132	-0.63910825	2.31697841
O	2.49460479	1.19167796	2.59205956
H	0.79045315	2.36353916	-0.45607012
H	0.98044127	-2.73836033	-0.54296951
H	-4.06616590	4.49251759	0.82098617
H	2.23263918	1.28869292	3.56572552

42
C	-0.14109309	0.25300316	-1.00864255
C	-1.53272921	0.26720174	-1.13994648
C	-2.35233576	-0.06795670	-0.05061377
C	-1.75822897	-0.41694631	1.17244824
C	-0.36672710	-0.42982241	1.30382206
C	0.45075469	-0.09643894	0.21807045
N	1.87297842	-0.12086195	0.38753891
N	2.67311374	0.17149731	-0.55807823
C	4.09540805	0.14691053	-0.38877626
C	4.68734548	-0.20324372	0.83700102
C	6.07919496	-0.21766593	0.96906240
C	6.90343272	0.11701779	-0.11954795
C	6.30434741	0.46662599	-1.34368123
C	4.91253869	0.48048739	-1.47391389
N	8.33598267	0.10116329	0.01965690
O	9.07294773	0.39637546	-0.94408275
O	8.91831914	-0.24009852	1.21895922
N	-3.78691007	-0.05416794	-0.18643020
C	-4.56099699	-1.26853165	0.10941773
C	-4.29743358	-2.34057401	-0.94946452
O	-5.09064136	-3.46998225	-0.70574596
C	-4.46849541	1.17417536	-0.62004862
C	-4.38822709	2.24277781	0.47156554
O	-5.10063461	3.38632429	0.08570272
H	0.46948935	0.51092475	-1.86440726
H	-1.96933715	0.52141903	-2.09679105
H	-2.37101086	-0.66104320	2.03015700
H	0.07697813	-0.69687616	2.25486765
H	4.07651597	-0.46541404	1.69139468
H	6.50977706	-0.49101618	1.92364949
H	6.91147488	0.72930172	-2.20046053
H	4.46824566	0.75206186	-2.42348887
H	-4.29197543	-1.65777196	1.11384421
H	-5.65011424	-1.04722317	0.13220723
H	-4.55543808	-1.93568203	-1.95109313
H	-3.21948215	-2.62103234	-0.95835641
H	-4.67088257	-3.95285425	0.05354750
H	-5.53793865	0.97351261	-0.84741106
H	-4.00829160	1.55662267	-1.55529955
H	-4.83688367	1.84431166	1.40627668
H	-3.32601919	2.50316293	0.68282840
H	-4.53701794	3.86032633	-0.58026267

46
B	0.00000011	-0.00000002	-0.00000004
F	-0.50145020	1.34760386	0.21497894
F	0.46661103	-0.55054027	1.26209519
F	-1.06620607	-0.83527343	-0.52841979
F	1.10104514	0.03820986	-0.94865430
C	5.48599583	1.09138618	1.31984638
C	4.83138855	1.86563873	0.35941692
C	3.49658302	1.60269342	0.03657080
C	2.80119208	0.55727141	0.67392291
C	3.47265001	-0.21622924	1.64011855
C	4.80726316	0.05187928	1.95949448
C	1.38298648	0.27513242	0.33272337
C	0.47827674	1.32203055	0.11269483
C	-0.85358286	1.02480244	-0.22025421
O	-1.24037652	-0.24676146	-0.29841571
C	-0.42700773	-1.27956452	-0.08783831
C	0.92204173	-1.04345016	0.22419607
C	-0.97514692	-2.65412947	-0.20782875
C	-0.41696287	-3.73965631	0.49762488
C	-0.96274807	-5.02109409	0.37236938
C	-2.07197778	-5.23438477	-0.44838336
C	-2.64257176	-4.16519130	-1.14151311
C	-2.10203482	-2.88155124	-1.01979225
C	-1.85532244	2.09103307	-0.47313997
C	-3.22051300	1.82268510	-0.26071590
C	-4.18379499	2.80715426	-0.50079234
C	-3.79828012	4.06655330	-0.96390811
C	-2.44887956	4.34237952	-1.19316395
C	-1.48053226	3.36216169	-0.95414776
H	6.51916567	1.29692469	1.56841161
H	5.35961495	2.66862000	-0.13832085
H	3.01418797	2.20482002	-0.72315464
H	2.96113643	-1.01608399	2.16072424
H	5.31456247	-0.54509411	2.70636454
H	0.80115782	2.34681479	0.23829022
H	1.61417693	-1.86630576	0.34279696
H	0.42240479	-3.60176168	1.16555826
H	-0.52901038	-5.84874528	0.91872028
H	-2.49290140	-6.22707148	-0.54261958
H	-3.50520330	-4.33057678	-1.77403249
H	-2.55905552	-2.06808827	-1.56988563
H	-3.54262530	0.85422615	0.10194397
H	-5.23049845	2.59269973	-0.32761868
H	-4.54565694	4.82681907	-1.15074507
H	-2.15269838	5.31523864	-1.56391596
H	-0.44740328	3.59677544	-1.17160199

54
C	-7.26458903	2.42940936	1.36693080
C	-6.04251219	1.82866646	0.73810889
C	-4.93206725	1.49646695	1.52774974
C	-3.80690919	0.90205455	0.94905439
C	-3.77755519	0.62752601	-0.43062158
C	-4.90362103	0.93102228	-1.21032681
C	-6.02845170	1.52561437	-0.63117470
N	-2.63813040	0.00050665	-1.04655243
C	-1.32210100	-0.00096145	-0.46979878
C	-0.56657407	-1.19777912	-0.34703200
C	0.77870534	-1.12941919	0.10778485
C	1.31622777	0.12352982	0.50704855
C	0.53710557	1.28000608	0.40405918
C	-0.75482774	1.22170846	-0.09774332
N	2.62307242	0.22695787	1.09522188
C	3.62455444	1.16108884	0.65331661
C	3.57704669	1.73503380	-0.63048015
C	4.57049703	2.62789992	-1.04282870
C	5.63752050	2.94365514	-0.18915426
C	5.68540840	2.37505973	1.09199916
C	4.69236135	1.48192862	1.50471082
C	6.68165705	3.93173777	-0.61746382
C	1.61154716	-2.36915118	0.10881981
O	2.84790375	-2.30977463	0.35050826
C	1.01145908	-3.67957628	-0.22419787
C	1.78735593	-4.85414826	-0.18137008
C	1.21996378	-6.08946125	-0.49945786
C	-0.12351219	-6.16788400	-0.86362979
C	-0.90397563	-5.01126526	-0.91074388
C	-0.34429534	-3.75857780	-0.59295054
C	-1.17038428	-2.53232655	-0.63846080
O	-2.40292509	-2.63764310	-0.88395797
H	-7.94382461	1.61811477	1.70230684
H	-7.80210452	3.07499814	0.64005300
H	-6.98741414	3.05513959	2.24197884
H	-4.93864346	1.69353204	2.59276167
H	-2.96915242	0.64326219	1.58320597
H	-4.90835344	0.70895259	-2.27009280
H	-6.88824340	1.74902201	-1.25079515
H	-2.74974089	-0.41612463	-1.99881924
H	0.93772237	2.23618440	0.71728316
H	-1.32207721	2.13864090	-0.19939958
H	2.82392727	-0.36243477	1.93493998
H	2.77946953	1.48789351	-1.31873597
H	4.51031350	3.06837811	-2.03048708
H	6.49239604	2.62132825	1.77111613
H	4.74956805	1.04658753	2.49448639
H	6.36149557	4.95484809	-0.32975149
H	6.82895662	3.89405571	-1.71789801
H	7.65588281	3.70717358	-0.13318940
H	2.83252458	-4.81946450	0.09945330
H	1.82335195	-6.98736678	-0.46338061
H	-0.56151538	-7.12655609	-1.11003521
H	-1.94449378	-5.09806926	-1.19748663

47
C	-5.64245856	-0.95998082	0.29535330
C	-4.17477518	-0.79115293	-0.00251432
C	-3.70119289	0.45436172	-0.42953528
C	-2.34793986	0.65224606	-0.71297959
C	-1.40697147	-0.40672288	-0.56000124
C	-1.90590915	-1.66506012	-0.13979736
C	-3.26766110	-1.86041167	0.14903192
C	-3.73993166	-3.21999659	0.59968447
N	-0.06087301	-0.18695370	-0.83253509
C	0.32674028	1.04334768	-1.31071642
N	1.61361374	1.31128770	-1.65846108
C	1.98920514	2.53410760	-2.11808286
O	3.19235761	2.73535074	-2.43001042
N	1.07675777	3.54002659	-2.24340168
C	-0.23444770	3.35745317	-1.92587763
O	-1.05317701	4.30695768	-2.05974715
C	-0.66386971	2.11683356	-1.45758170
N	-1.95282589	1.87334765	-1.14761450
C	0.97509673	-1.23510269	-0.63113365
C	1.46201300	-1.34098724	0.84056615
C	2.25146506	-0.09773664	1.35069874
C	3.75075783	-0.13769212	0.94806104
C	4.53415833	1.05925242	1.52201142
O	3.98455141	2.27695496	1.09364088
O	3.88517218	-0.14806771	-0.44835009
O	2.16861774	-0.06059775	2.75672822
O	0.35383761	-1.57019611	1.67487818
H	-6.05944886	-1.79299501	-0.30825582
H	-5.78342036	-1.17965966	1.37422983
H	-6.21990416	-0.04275312	0.05191562
H	-4.39041660	1.28234538	-0.55104573
H	-1.25573191	-2.51577737	-0.02112656
H	-2.89393746	-3.92387668	0.74983739
H	-4.41753285	-3.65361508	-0.16514456
H	-4.28105828	-3.13396481	1.56501220
H	1.39117449	4.47292300	-2.59648757
H	1.83783799	-1.08094039	-1.30677174
H	0.60624746	-2.22117830	-0.97620263
H	2.13776984	-2.22905281	0.88482318
H	1.78299156	0.81993893	0.93080549
H	4.19612881	-1.06901141	1.37146543
H	4.51477278	1.02847401	2.63167062
H	5.60442946	0.99013759	1.22003311
H	4.31305204	2.42862447	0.16955840
H	4.79475825	-0.49151586	-0.64983569
H	2.05455730	0.88833177	3.02675564
H	0.65541930	-2.15730319	2.41697620

181
C	17.49938648	-2.61972098	1.61748799
C	16.43719904	-1.75016719	0.99888951
C	16.61417555	-1.26948049	-0.32250792
C	15.62227401	-0.47073853	-0.87341557
C	14.48551081	-0.16458885	-0.19715833
C	14.25443711	-0.60560526	1.09771107
C	15.24444462	-1.42007515	1.71524879
C	15.00694310	-1.93323687	3.10855813
N	13.71105764	0.60622145	-0.98586624
C	14.41810504	0.70355277	-2.14095165
N	15.61022148	0.05170785	-2.10833971
C	12.38178827	1.16032069	-0.69231892
C	11.26817229	0.10686017	-0.76335715
C	10.11600617	0.84798471	-1.41338458
C	10.87810193	1.89200309	-2.25083945
O	12.08926136	2.20354725	-1.59533097
C	10.08374534	3.18790069	-2.44516040
O	10.84929819	4.13038911	-3.13903137
O	9.36269125	-0.04462666	-2.21499939
P	7.71257467	0.39652551	-2.30145593
O	7.50280153	1.28342705	-3.49327774
O	6.82452486	-1.02889400	-2.53582612
O	7.11897838	1.15739659	-0.87804181
C	5.81006439	1.65568701	-1.11519771
C	5.88962143	3.16975731	-1.32425919
C	4.89188479	1.33063290	0.08662136
N	3.46902504	1.54657245	-0.24089926
C	2.43238145	1.44140926	0.75003707
O	2.73295564	1.45871919	1.97618767
C	1.01162795	1.14021941	0.34052450
C	0.85719134	-0.38648704	0.25732034
C	-0.55515622	-1.00809332	0.04672347
C	-1.25200328	-0.51217768	-1.29789209
C	-2.73580810	-0.19755503	-0.91014103
C	-3.39324361	1.23352086	-1.12740593
C	-3.83613569	1.66976742	-2.63699495
C	-5.41330698	1.61614552	-2.62068051
C	-5.70469503	0.88007316	-1.36862489
C	-6.51856494	-0.18410687	-1.26387611
C	-6.80366027	-0.81912407	0.04203481
N	-5.90354555	-1.52128405	0.63682036
C	-6.55147149	-2.43513057	1.51846968
C	-5.96178955	-2.97384095	2.60657318
C	-4.68029941	-2.45532505	3.13722171
N	-3.75735055	-2.03605002	2.34751307
C	-2.76512212	-1.36571305	3.10184492
C	-1.60971100	-0.94216763	2.53210067
C	-1.62345349	-0.69393362	1.06308577
N	-2.74804023	-0.39393934	0.52078729
C	-0.42186219	-0.48723386	3.36037440
C	-3.28186346	-1.07575034	4.49926370
C	-4.38933906	-2.19363393	4.59547048
C	-5.65748056	-1.78867075	5.39149747
C	-3.78160120	-3.46230382	5.23658446
C	-3.88878181	0.36638514	4.54039330
C	-2.90476751	1.50470316	4.20764248
C	-3.51525885	2.85838555	4.39839601
O	-4.68661163	3.09608634	4.02906333
N	-2.65917311	3.96061138	4.71577410
C	-8.00036616	-2.50928656	1.12397435
C	-8.20677513	-1.03352425	0.63186813
C	-8.32709440	-0.00579607	1.78580228
C	-9.34763165	-0.83830125	-0.42938950
C	-10.74214018	-0.52732593	0.07276506
O	-11.11674314	-0.82395791	1.23433786
N	-11.69225480	0.05696395	-0.81716891
C	-9.04121026	-3.09094723	2.12261598
C	-9.75253310	-4.35476629	1.57800327
C	-10.83667328	-3.99650528	0.59430739
O	-11.95851592	-3.61048872	1.02236437
N	-10.59197455	-4.05302141	-0.81800582
C	-6.95915383	-0.92861848	-2.50075391
N	-4.68318247	1.12245421	-0.42066549
C	-6.21249036	2.96301527	-2.62868846
C	-6.23075652	3.73948985	-1.28849099
C	-6.68478813	5.15396855	-1.49448331
O	-7.70858899	5.39862987	-2.18224749
N	-5.99899812	6.23624456	-0.84022460
C	-3.29890090	3.08701853	-3.04355685
C	-3.30599697	0.67812614	-3.73751115
C	-3.96846726	0.77935061	-5.08790234
O	-3.88271955	1.83844526	-5.77064743
N	-4.65772008	-0.34436276	-5.63692089
C	-2.53705928	2.30303352	-0.39565842
C	-0.98474595	-1.43045244	-2.54263452
C	-1.57925854	-2.81431304	-2.54964060
O	-2.63735636	-3.09058212	-1.92619732
N	-0.90651172	-3.84262528	-3.28950731
C	-0.35700344	-2.54317461	0.12890053
O	11.65848638	-0.98920707	-1.56344021
C	0.57829702	0.00000000	0.00000000
N	-0.57829702	0.00000000	0.00000000
Co	0.00000000	0.00000000	0.00000000
H	18.31886301	-2.83475817	0.90621976
H	17.93182803	-2.10615519	2.50816515
H	17.05817150	-3.58823115	1.94115625
H	17.51118659	-1.51481375	-0.89151837
H	13.33873953	-0.35183117	1.61749370
H	14.08963635	-1.49373528	3.55475627
H	15.86209234	-1.66568658	3.76569549
H	14.89051581	-3.03200997	3.07509241
H	14.07028454	1.26106437	-3.00364682
H	12.39531231	1.59467358	0.32796903
H	10.97149402	-0.23850520	0.26036009
H	9.54056780	1.34299148	-0.60679061
H	11.11785189	1.46443582	-3.25068276
H	9.14529130	2.99164173	-3.00790009
H	9.80776367	3.61046211	-1.45485396
H	10.88760469	3.83719346	-4.08235548
H	5.31265090	1.21400950	-2.01661818
H	4.86955069	3.60533984	-1.46631452
H	6.49932942	3.41134999	-2.22085236
H	6.36581732	3.66183851	-0.44042084
H	5.17434551	1.97183214	0.95903822
H	5.04112499	0.26815981	0.37427087
H	3.18203959	1.49338310	-1.24349850
H	0.30780313	1.57584200	1.08787087
H	0.80235744	1.62596858	-0.63618550
H	1.49429391	-0.72184947	-0.59737669
H	1.31220485	-0.82529162	1.17013529
H	-0.81207521	0.46768732	-1.58960616
H	-3.41208657	-0.96103191	-1.32202526
H	-5.79940364	1.07216542	-3.49570789
H	-6.48607380	-3.67124835	3.24539813
H	0.43380674	-1.16692849	3.20018734
H	-0.12375820	0.53768125	3.06437025
H	-0.62704945	-0.45138939	4.43956234
H	-2.51828214	-1.21046038	5.28474328
H	-5.39244330	-1.39813314	6.39438863
H	-6.33470124	-2.65565479	5.51430138
H	-6.24452096	-1.01210817	4.85665572
H	-4.52820477	-4.27879322	5.22927558
H	-2.89161978	-3.79106125	4.66043817
H	-3.48473014	-3.25107978	6.28751545
H	-4.30316173	0.55348155	5.55753569
H	-4.73895814	0.42943254	3.81183471
H	-2.56212329	1.43291073	3.15986992
H	-2.02327137	1.42415695	4.89850612
H	-1.64981085	3.88672518	4.47585714
H	-3.01814982	4.72952148	5.33615833
H	-8.00778016	-3.15000844	0.21425139
H	-8.49960706	1.01527477	1.37672485
H	-7.39648053	0.04922754	2.40594344
H	-9.14061441	-0.23952180	2.48379713
H	-9.08528838	0.04044774	-1.05979752
H	-9.41300849	-1.71974167	-1.09749476
H	-12.65342790	0.28474228	-0.47927498
H	-11.44971286	0.26569623	-1.81588907
H	-9.79637050	-2.35129504	2.41763972
H	-8.57299278	-3.35568129	3.08494968
H	-9.01359787	-5.04116261	1.10406115
H	-10.20961385	-4.91006791	2.43057483
H	-11.24921808	-3.54439583	-1.46318754
H	-9.73240684	-4.51326758	-1.18798461
H	-7.45952134	-1.88500425	-2.24712077
H	-6.06819597	-1.22679926	-3.08866832
H	-7.64943290	-0.30820575	-3.10924116
H	-5.86715928	3.61909098	-3.45640760
H	-7.27029431	2.71645130	-2.85952118
H	-6.93085686	3.26522811	-0.58722176
H	-5.23101095	3.74210556	-0.81868500
H	-5.14773698	6.06646679	-0.25804072
H	-6.33466153	7.21444333	-0.97481708
H	-3.57432144	3.87399046	-2.32205537
H	-2.19702317	3.08165985	-3.17172502
H	-3.72098202	3.42496094	-4.00260635
H	-3.44927883	-0.35241536	-3.40645098
H	-2.23199369	0.88058960	-3.87213039
H	-4.66267775	-1.28174146	-5.16652552
H	-5.10378301	-0.27042311	-6.57756178
H	-2.13332876	1.94705993	0.56533402
H	-3.13865692	3.19591631	-0.15737187
H	-1.66342083	2.60116928	-1.01426215
H	0.11784302	-1.51881255	-2.64856483
H	-1.31247516	-0.95114156	-3.46917246
H	-1.25139465	-4.82773183	-3.23121206
H	-0.15189927	-3.58397032	-3.96417977
H	-1.32153383	-3.08369844	0.08998586
H	0.33046283	-2.90197694	-0.65743232
H	0.10850201	-2.82320193	1.10328396
H	12.11561824	-1.63378972	-0.96512984

